/*--------------------------------*- C++ -*----------------------------------*\
| =========                 |                                                 |
| \\      /  F ield         | OpenFOAM: The Open Source CFD Toolbox           |
|  \\    /   O peration     | Version:  v2312                                |
|   \\  /    A nd           | Website:  www.openfoam.com                      |
|    \\/     M anipulation  |                                                 |
\*---------------------------------------------------------------------------*/
FoamFile
{
    version     2.0;
    format      ascii;
    class       volScalarField;
    location    "0";
    object      p;
}
// * * * * * * * * * * * * * * * * * * * * * * * * * * * * * * * * * * * * * //

dimensions      [0 2 -2 0 0 0 0];

internalField   uniform 1e5; // Initial pressure (e.g., 1 bar)

boundaryField
{
    inlet
    {
        type            fixedValue;
        value           uniform 1e5;
    }
    foreOutlet
    {
        type            zeroGradient;
    }
    aftOutlet
    {
        type            zeroGradient;
    }
    turbineWalls
    {
        type            zeroGradient; // Default wall, adjust if needed
    }
}

// ************************************************************************* //
