/*--------------------------------*- C++ -*----------------------------------*\
| =========                 |                                                 |
| \\      /  F ield         | OpenFOAM: The Open Source CFD Toolbox           |
|  \\    /   O peration     | Version:  12                                    |
|   \\  /    A nd           | Website:  https://openfoam.org                  |
|    \\/     M anipulation  |                                                 |
\*---------------------------------------------------------------------------*/
FoamFile
{
    version     2.0;
    format      ascii;
    class       dictionary;
    location    "system";
    object      blockMeshDict;
}
// * * * * * * * * * * * * * * * * * * * * * * * * * * * * * * * * * * * * * //

convertToMeters 0.001; // Convert mm to m

vertices
(
    (-0.75 -2.0 -2.0)  // 0
    (0.75  -2.0 -2.0)   // 1
    (0.75  2.0  -2.0)   // 2
    (-0.75 2.0  -2.0)   // 3
    (-0.75 -2.0  3.5)   // 4
    (0.75  -2.0  3.5)   // 5
    (0.75  2.0   3.5)   // 6
    (-0.75 2.0   3.5)   // 7
);

blocks
(
    hex (0 1 2 3 4 5 6 7) (20 40 55) simpleGrading (1 1 1)
);

edges
(
);

boundary
(
    inlet
    {
        type patch;
        faces
        (
            (4 5 6 7)
        );
    }
    outlet
    {
        type patch;
        faces
        (
            (0 3 2 1)
        );
    }
    walls
    {
        type wall;
        faces
        (
            (0 1 5 4)
            (1 2 6 5)
            (2 3 7 6)
            (3 0 4 7)
        );
    }
);

mergePatchPairs
(
);

// ************************************************************************* //
