/*--------------------------------*- C++ -*----------------------------------*\
| =========                 |                                                 |
| \\      /  F ield         | OpenFOAM: The Open Source CFD Toolbox           |
|  \\    /   O peration     | Version:  12                                    |
|   \\  /    A nd           | Website:  https://openfoam.org                  |
|    \\/     M anipulation  |                                                 |
\*---------------------------------------------------------------------------*/
FoamFile
{
    version     2.0;
    format      ascii;
    class       dictionary;
    location    "system";
    object      blockMeshDict;
}
// * * * * * * * * * * * * * * * * * * * * * * * * * * * * * * * * * * * * * //

convertToMeters 0.001; // Convert mm to m for OpenFOAM

vertices
(
    (-750 -2000 -2000)  // 0
    (750  -2000 -2000)  // 1
    (750  2000  -2000)  // 2
    (-750 2000  -2000)  // 3
    (-750 -2000  3500)  // 4
    (750  -2000  3500)  // 5
    (750  2000   3500)  // 6
    (-750 2000   3500)  // 7
);

blocks
(
    hex (0 1 2 3 4 5 6 7) (50 100 138) simpleGrading (1 1 1) // 1500x4000x5500 mm
);

edges
(
);

boundary
(
    inlet
    {
        type patch;
        faces
        (
            (4 5 6 7)
        );
    }
    outlet
    {
        type patch;
        faces
        (
            (0 3 2 1)
        );
    }
    walls
    {
        type wall;
        faces
        (
            (0 1 5 4)
            (1 2 6 5)
            (2 3 7 6)
            (3 0 4 7)
        );
    }
);

mergePatchPairs
(
);

// ************************************************************************* //
