/*--------------------------------*- C++ -*----------------------------------*\
| =========                 |                                                 |
| \\      /  F ield         | OpenFOAM: The Open Source CFD Toolbox           |
|  \\    /   O peration     | Version:  12                                    |
|   \\  /    A nd           | Website:  https://openfoam.org                  |
|    \\/     M anipulation  |                                                 |
\*---------------------------------------------------------------------------*/
FoamFile
{
    version     2.0;
    format      ascii;
    class       dictionary;
    location    "system";
    object      surfaceFeaturesDict;
}
// * * * * * * * * * * * * * * * * * * * * * * * * * * * * * * * * * * * * * //

includedAngle 150; // Extract edges with angle > 150 degrees

surfaces
(
    "turbine.stl"
);

turbine.stl
{
    // Optional: Define geometric subsets
    subset
    {
        nonManifoldEdges no;
        openEdges yes;
        multipleEdges no;
    }
}

// ************************************************************************* //
